Spectre (R) Circuit Simulator
Version 18.1.0.556.isr13 64bit -- 10 Dec 2019
Simulating `input.scs' on finagle.wot.ece.northwestern.edu at 10:35:50 AM, Wed Mar 18, 2026 (process id: 703555).
H = mpsImport( "spectre" "ipi" "v0.0" ?session "spectre6_4172048_4" )
H->sclSetResultDir( "../psf" )
H->sclRun( "all" )
sclCkt0xa0ef650 = H->sclGetCircuit(  "" )
H->sclQuit(  )
