
Spectre (R) Circuit Simulator
Version 18.1.0.556.isr13 64bit -- 10 Dec 2019
Copyright (C) 1989-2019 Cadence Design Systems, Inc. All rights reserved worldwide. Cadence and Spectre are registered trademarks of Cadence Design Systems, Inc. All others are the property of their respective holders.

Includes RSA BSAFE(R) Cryptographic or Security Protocol Software from RSA Security, Inc.

User: gel8580   Host: finagle.wot.ece.northwestern.edu   HostID: 6981D305   PID: 703555
Memory  available: 15.0897 GB  physical: 66.6776 GB
Linux   : Red Hat Enterprise Linux release 8.10 (Ootpa)
CPU Type: Intel(R) Xeon(R) Gold 5317 CPU @ 3.00GHz
        Socket: Processors [Frequency] (Hyperthreaded Processor)
        0:       0 [3120.9] ( 24 ),  2 [3600.0] ( 26 ),  4 [3600.0] ( 28 )
                 6 [3600.0] ( 30 ),  8 [3600.0] ( 32 ), 10 [3600.0] ( 34 )
                12 [3600.0] ( 36 ), 14 [3400.0] ( 38 ), 16 [3600.0] ( 40 )
                18 [3600.0] ( 42 ), 20 [3600.0] ( 44 ), 22 [3600.0] ( 46 )
        1:       1 [3600.0] ( 25 ),  3 [3600.0] ( 27 ),  5 [3600.0] ( 29 )
                 7 [3600.0] ( 31 ),  9 [3600.0] ( 33 ), 11 [3600.0] ( 35 )
                13 [3600.0] ( 37 ), 15 [3600.0] ( 39 ), 17 [3600.0] ( 41 )
                19 [2978.4] ( 43 ), 21 [3600.0] ( 45 ), 23 [3600.0] ( 47 )
        
System load averages (1min, 5min, 15min) : 1.2 %, 0.6 %, 0.4 %
Hyperthreading is enabled


Simulating `input.scs' on finagle.wot.ece.northwestern.edu at 10:35:50 AM, Wed Mar 18, 2026 (process id: 703555).
Current working directory: /home/gel8580/CE391/Lab3/simulation/sram_col_1b/spectre/config/netlist
Command line:
    /vol/cadence2018/SPECTRE181/tools/bin/spectre -64 input.scs  \
        +escchars +log ../psf/spectre.out +inter=mpsc  \
        +mpssession=spectre6_4172048_4 -format psfxl -raw ../psf  \
        +lqtimeout 900 -maxw 5 -maxn 5
spectre pid = 703555

Loading /vol/cadence2018/SPECTRE181/tools.lnx86/cmi/lib/64bit/5.0/libinfineon_sh.so ...
Loading /vol/cadence2018/SPECTRE181/tools.lnx86/cmi/lib/64bit/5.0/libphilips_o_sh.so ...
Loading /vol/cadence2018/SPECTRE181/tools.lnx86/cmi/lib/64bit/5.0/libphilips_sh.so ...
Loading /vol/cadence2018/SPECTRE181/tools.lnx86/cmi/lib/64bit/5.0/libsparam_sh.so ...
Loading /vol/cadence2018/SPECTRE181/tools.lnx86/cmi/lib/64bit/5.0/libstmodels_sh.so ...
Reading file:  /home/gel8580/CE391/Lab3/simulation/sram_col_1b/spectre/config/netlist/input.scs
Reading file:  /vol/cadence2018/SPECTRE181/tools.lnx86/spectre/etc/configs/spectre.cfg
Reading file:  /vol/eecs391/FreePDK45/ncsu_basekit/models/hspice/hspice_nom.include
Reading file:  /vol/eecs391/FreePDK45/ncsu_basekit/models/hspice/tran_models/models_nom/NMOS_VTG.inc
Reading file:  /vol/eecs391/FreePDK45/ncsu_basekit/models/hspice/tran_models/models_nom/PMOS_VTG.inc
Reading file:  /vol/eecs391/FreePDK45/ncsu_basekit/models/hspice/tran_models/models_nom/NMOS_VTL.inc
Reading file:  /vol/eecs391/FreePDK45/ncsu_basekit/models/hspice/tran_models/models_nom/PMOS_VTL.inc
Reading file:  /vol/eecs391/FreePDK45/ncsu_basekit/models/hspice/tran_models/models_nom/NMOS_VTH.inc
Reading file:  /vol/eecs391/FreePDK45/ncsu_basekit/models/hspice/tran_models/models_nom/PMOS_VTH.inc
Reading file:  /vol/eecs391/FreePDK45/ncsu_basekit/models/hspice/tran_models/models_nom/NMOS_THKOX.inc
Reading file:  /vol/eecs391/FreePDK45/ncsu_basekit/models/hspice/tran_models/models_nom/PMOS_THKOX.inc
Time for NDB Parsing: CPU = 56.799 ms, elapsed = 124.86 ms.
Time accumulated: CPU = 86.417 ms, elapsed = 124.862 ms.
Peak resident memory used = 102 Mbytes.


Warning from spectre in `inverter':`I49', during hierarchy flattening.
    WARNING (SFE-102): "input.scs" 17: Parameter `ld', specified for model `NMOS_VTG' of primitive `bsim4', has been ignored because it is an invalid model parameter. Specify a valid model parameter and rerun the simulation. Type `spectre -h bsim4' to get more information on valid model parameters.
    WARNING (SFE-32): "/vol/eecs391/FreePDK45/ncsu_basekit/models/hspice/tran_models/models_nom/PMOS_VTG.inc" 3: Duplicate specification for parameter `toxref' (using last value specified).
    WARNING (SFE-102): "input.scs" 19: Parameter `ld', specified for model `PMOS_VTG' of primitive `bsim4', has been ignored because it is an invalid model parameter. Specify a valid model parameter and rerun the simulation. Type `spectre -h bsim4' to get more information on valid model parameters.
Warning from spectre in `inverter':`I48', during hierarchy flattening.
    WARNING (SFE-102): "input.scs" 17: Parameter `ld', specified for model `NMOS_VTG' of primitive `bsim4', has been ignored because it is an invalid model parameter. Specify a valid model parameter and rerun the simulation. Type `spectre -h bsim4' to get more information on valid model parameters.
    WARNING (SFE-102): "input.scs" 19: Parameter `ld', specified for model `PMOS_VTG' of primitive `bsim4', has been ignored because it is an invalid model parameter. Specify a valid model parameter and rerun the simulation. Type `spectre -h bsim4' to get more information on valid model parameters.
Warning from spectre in `inverter':`I47', during hierarchy flattening.
    WARNING (SFE-102): "input.scs" 17: Parameter `ld', specified for model `NMOS_VTG' of primitive `bsim4', has been ignored because it is an invalid model parameter. Specify a valid model parameter and rerun the simulation. Type `spectre -h bsim4' to get more information on valid model parameters.
        Further occurrences of this warning will be suppressed.

Time for Elaboration: CPU = 22.363 ms, elapsed = 24.333 ms.
Time accumulated: CPU = 108.884 ms, elapsed = 149.298 ms.
Peak resident memory used = 112 Mbytes.


Warning from spectre during hierarchy flattening.
    WARNING (SPECTRE-17101): The value 'psf' specified using the 'checklimitdest' option will no longer be supported in future releases.


Time for EDB Visiting: CPU = 9.122 ms, elapsed = 9.48405 ms.
Time accumulated: CPU = 118.129 ms, elapsed = 158.903 ms.
Peak resident memory used = 115 Mbytes.


Notice from spectre during topology check.
    No DC path from node `I46._net0' to ground, Gmin installed to provide path.


Global user options:
         psfversion = 1.1.0
            vabstol = 1e-06
            iabstol = 1e-12
               temp = 27
               gmin = 1e-12
             rforce = 1
           maxnotes = 5
           maxwarns = 5
             digits = 5
               cols = 80
             pivrel = 0.001
           sensfile = ../psf/sens.output
     checklimitdest = psf
               save = allpub
             reltol = 0.001
               tnom = 27
             scalem = 1
              scale = 1

Scoped user options:

Circuit inventory:
              nodes 572
              bsim4 74    
          capacitor 1203  
           resistor 535   
            vsource 10    

Analysis and control statement inventory:
               info 7     
               tran 1     

Output statements:
             .probe 0     
           .measure 0     
               save 1     


Notice from spectre.
    69 warnings suppressed.

Time for parsing: CPU = 5.147 ms, elapsed = 6.74295 ms.
Time accumulated: CPU = 123.365 ms, elapsed = 165.99 ms.
Peak resident memory used = 119 Mbytes.

~~~~~~~~~~~~~~~~~~~~~~
Pre-Simulation Summary
~~~~~~~~~~~~~~~~~~~~~~
~~~~~~~~~~~~~~~~~~~~~~
Entering remote command mode using MPSC service (spectre, ipi, v0.0, spectre6_4172048_4, ).

*************************************************
Transient Analysis `tran': time = (0 s -> 100 ns)
*************************************************

Notice from spectre during IC analysis, during transient analysis `tran'.
    GminDC = 1 pS is large enough to noticeably affect the DC solution.
        dV(I46.I5_net20) = 106.452 uV
        Use the `gmin_check' option to eliminate or expand this report.

DC simulation time: CPU = 6.765 ms, elapsed = 6.78587 ms.

Opening the PSFXL file ../psf/tran.tran.tran ...
Important parameter values:
    start = 0 s
    outputstart = 0 s
    stop = 100 ns
    step = 100 ps
    maxstep = 2 ns
    ic = all
    useprevic = no
    skipdc = no
    reltol = 1e-03
    abstol(V) = 1 uV
    abstol(I) = 1 pA
    temp = 27 C
    tnom = 27 C
    tempeffects = all
    errpreset = moderate
    method = traponly
    lteratio = 3.5
    relref = sigglobal
    cmin = 0 F
    gmin = 1 pS


Output and IC/nodeset summary:
                 save   2       (current)
                 save   572     (voltage)

    tran: time = 2.528 ns    (2.53 %), step = 134.1 ps     (134 m%)

Notice from spectre at time = 6.29686 ns during transient analysis `tran'.
    Found trapezoidal ringing on node I46.I5_MM2:int_g.
Notice from spectre at time = 6.51795 ns during transient analysis `tran'.
    Found trapezoidal ringing on node I46.I5_MM2:int_g.
Notice from spectre at time = 6.96014 ns during transient analysis `tran'.
    Found trapezoidal ringing on node I46.I5_MM2:int_g.
Notice from spectre at time = 7.48007 ns during transient analysis `tran'.
    Found trapezoidal ringing on node I46.I5_MM2:int_g.
Notice from spectre at time = 8 ns during transient analysis `tran'.
    Found trapezoidal ringing on node I46.I5_MM2:int_g.
        Further occurrences of this notice will be suppressed.

    tran: time = 8 ns           (8 %), step = 519.9 ps     (520 m%)
    tran: time = 12.57 ns    (12.6 %), step = 600.8 ps     (601 m%)
    tran: time = 17.65 ns    (17.7 %), step = 349.9 ps     (350 m%)
    tran: time = 22.62 ns    (22.6 %), step = 273.1 ps     (273 m%)
    tran: time = 27.53 ns    (27.5 %), step = 96.7 ps     (96.7 m%)
    tran: time = 32.63 ns    (32.6 %), step = 140.3 ps     (140 m%)
    tran: time = 38 ns         (38 %), step = 766.3 ps     (766 m%)
    tran: time = 42.53 ns    (42.5 %), step = 236.3 ps     (236 m%)
    tran: time = 47.7 ns     (47.7 %), step = 302.8 ps     (303 m%)
    tran: time = 52.54 ns    (52.5 %), step = 271.1 ps     (271 m%)
    tran: time = 57.66 ns    (57.7 %), step = 345 ps       (345 m%)
    tran: time = 63 ns         (63 %), step = 599.8 ps     (600 m%)
    tran: time = 67.63 ns    (67.6 %), step = 165.9 ps     (166 m%)
    tran: time = 72.54 ns    (72.5 %), step = 112.9 ps     (113 m%)
    tran: time = 77.58 ns    (77.6 %), step = 130.6 ps     (131 m%)
    tran: time = 83.52 ns    (83.5 %), step = 2 ns            (2 %)
    tran: time = 87.52 ns    (87.5 %), step = 2 ns            (2 %)
    tran: time = 93.52 ns    (93.5 %), step = 2 ns            (2 %)
    tran: time = 97.52 ns    (97.5 %), step = 2 ns            (2 %)
Number of accepted tran steps =             1956

Notice from spectre during transient analysis `tran'.
    Trapezoidal ringing is detected during tran analysis.
        Please use method=trap for better results and performance.


Maximum value achieved for any signal of each quantity: 
V: V(I46.I6_MM2:int_g) = 1.216 V
I: I(V2:p) = 305.9 uA
If your circuit contains signals of the same quantity that are vastly different in size (such as high voltage circuitry combined with low voltage control circuitry), you should consider specifying global option `bin_relref=yes'.

~~~~~~~~~~~~~~~~~~~~~~~~~~~~~~~~~
Post-Transient Simulation Summary
~~~~~~~~~~~~~~~~~~~~~~~~~~~~~~~~~
   -   To further speed up simulation, consider
          add ++aps on command line
~~~~~~~~~~~~~~~~~~~~~~~~~~~~~~~~~


During simulation, the CPU load for active processors is :
        Spectre  0 (4.0 %)       1 (3.4 %)       2 (6.9 %)       3 (4.6 %)
                 4 (3.4 %)       5 (1.7 %)       6 (1.7 %)       7 (3.4 %)
                 8 (1.7 %)       9 (1.7 %)      10 (90.8 %)     11 (1.7 %)
                12 (4.0 %)      13 (1.7 %)      14 (7.5 %)      16 (1.7 %)
                18 (2.3 %)      19 (1.1 %)      20 (1.2 %)      21 (1.1 %)
                22 (4.0 %)      23 (1.1 %)      24 (1.1 %)      25 (1.7 %)
                26 (2.3 %)      27 (1.7 %)      28 (1.7 %)      29 (1.1 %)
                30 (2.3 %)      32 (2.3 %)      33 (1.1 %)      34 (1.2 %)
                35 (1.1 %)      36 (1.1 %)      38 (2.9 %)      39 (1.7 %)
                40 (1.2 %)      41 (1.1 %)      42 (2.9 %)      43 (1.2 %)
                44 (2.3 %)      45 (1.1 %)      46 (2.9 %)      
        Other   
Initial condition solution time: CPU = 6.81 ms, elapsed = 7.15184 ms.
Intrinsic tran analysis time:    CPU = 1.58414 s, elapsed = 1.59551 s.
Total time required for tran analysis `tran': CPU = 1.59437 s, elapsed = 1.60933 s.
Time accumulated: CPU = 1.76395 s, elapsed = 1.89094 s.
Peak resident memory used = 142 Mbytes.


Notice from spectre.
    24 notices suppressed.

finalTimeOP: writing operating point information to rawfile.

Opening the PSF file ../psf/finalTimeOP.info ...
modelParameter: writing model parameter values to rawfile.

Opening the PSF file ../psf/modelParameter.info ...
element: writing instance parameter values to rawfile.

Opening the PSF file ../psf/element.info ...
outputParameter: writing output parameter values to rawfile.

Opening the PSF file ../psf/outputParameter.info ...
designParamVals: writing netlist parameters to rawfile.

Opening the PSFASCII file ../psf/designParamVals.info ...
primitives: writing primitives to rawfile.

Opening the PSFASCII file ../psf/primitives.info.primitives ...
subckts: writing subcircuits to rawfile.

Opening the PSFASCII file ../psf/subckts.info.subckts ...

Aggregate audit (10:37:47 AM, Wed Mar 18, 2026):
Time used: CPU = 1.8 s, elapsed = 117 s (1m  57.1s), util. = 1.54%.
Time spent in licensing: elapsed = 12.9 ms.
Peak memory used = 142 Mbytes.
Simulation started at: 10:35:50 AM, Wed Mar 18, 2026, ended at: 10:37:47 AM, Wed Mar 18, 2026, with elapsed time (wall clock): 117 s (1m  57.1s).
spectre completes with 0 errors, 7 warnings, and 11 notices.
